omf/solvers/opendss/ieeeLVTestCase_loadshapeTest.clean.dss
! To be used with the files located in the 'Daily_1min_100profiles' folder of the ieeeLVTestCase sourcefiles,
! retrievable from https://sourceforge.net/p/electricdss/code/HEAD/tree/trunk/Version8/Distrib/IEEETestCases/LVTestCase/
! The entire 'Daily_1min_100profiles' folder should be placed into the same directory as this file.

Clear
New object=Circuit.lvtest


! Redirect Vsource.dss
Edit object=Vsource.source bus1=sourcebus.1.2.3 basekv=11 pu=1.05 Isc3=3000 Isc1=5
! Redirect LineCode.DSS
New object=LineCode.2c_007 nphases=3 r1=3.97 x1=0.099 r0=3.97 x0=0.099 C1=0 C0=0 units=km
New object=LineCode.2c_0225 nphases=3 r1=1.257 x1=0.085 r0=1.257 x0=0.085 C1=0 C0=0 units=km
New object=LineCode.2c_16 nphases=3 r1=1.15 x1=0.088 r0=1.2 x0=0.088 C1=0 C0=0 units=km
New object=LineCode.35_sac_xsc nphases=3 r1=0.868 x1=0.092 r0=0.76 x0=0.092 C1=0 C0=0 units=km
New object=LineCode.4c_06 nphases=3 r1=0.469 x1=0.075 r0=1.581 x0=0.091 C1=0 C0=0 units=km
New object=LineCode.4c_1 nphases=3 r1=0.274 x1=0.073 r0=0.959 x0=0.079 C1=0 C0=0 units=km
New object=LineCode.4c_35 nphases=3 r1=0.089 x1=0.0675 r0=0.319 x0=0.076 C1=0 C0=0 units=km
New object=LineCode.4c_185 nphases=3 r1=0.166 x1=0.068 r0=0.58 x0=0.078 C1=0 C0=0 units=km
New object=LineCode.4c_70 nphases=3 r1=0.446 x1=0.071 r0=1.505 x0=0.083 C1=0 C0=0 units=km
New object=LineCode.4c_95_sac_xc nphases=3 r1=0.322 x1=0.074 r0=0.804 x0=0.093 C1=0 C0=0 units=km
! Redirect Loadshape.DSS
New object=Loadshape.Shape_1 npts=1440 minterval=1 mult=(file=Daily_1min_100profiles\Load_profile_1.txt) useactual=true
New object=Loadshape.Shape_2 npts=1440 minterval=1 mult=(file=Daily_1min_100profiles\Load_profile_2.txt) useactual=true
New object=Loadshape.Shape_3 npts=1440 minterval=1 mult=(file=Daily_1min_100profiles\Load_profile_3.txt) useactual=true
New object=Loadshape.Shape_4 npts=1440 minterval=1 mult=(file=Daily_1min_100profiles\Load_profile_4.txt) useactual=true
New object=Loadshape.Shape_5 npts=1440 minterval=1 mult=(file=Daily_1min_100profiles\Load_profile_5.txt) useactual=true
New object=Loadshape.Shape_6 npts=1440 minterval=1 mult=(file=Daily_1min_100profiles\Load_profile_6.txt) useactual=true
New object=Loadshape.Shape_7 npts=1440 minterval=1 mult=(file=Daily_1min_100profiles\Load_profile_7.txt) useactual=true
New object=Loadshape.Shape_8 npts=1440 minterval=1 mult=(file=Daily_1min_100profiles\Load_profile_8.txt) useactual=true
New object=Loadshape.Shape_9 npts=1440 minterval=1 mult=(file=Daily_1min_100profiles\Load_profile_9.txt) useactual=true
New object=Loadshape.Shape_10 npts=1440 minterval=1 mult=(file=Daily_1min_100profiles\Load_profile_10.txt) useactual=true
New object=Loadshape.Shape_11 npts=1440 minterval=1 mult=(file=Daily_1min_100profiles\Load_profile_11.txt) useactual=true
New object=Loadshape.Shape_12 npts=1440 minterval=1 mult=(file=Daily_1min_100profiles\Load_profile_12.txt) useactual=true
New object=Loadshape.Shape_13 npts=1440 minterval=1 mult=(file=Daily_1min_100profiles\Load_profile_13.txt) useactual=true
New object=Loadshape.Shape_14 npts=1440 minterval=1 mult=(file=Daily_1min_100profiles\Load_profile_14.txt) useactual=true
New object=Loadshape.Shape_15 npts=1440 minterval=1 mult=(file=Daily_1min_100profiles\Load_profile_15.txt) useactual=true
New object=Loadshape.Shape_16 npts=1440 minterval=1 mult=(file=Daily_1min_100profiles\Load_profile_16.txt) useactual=true
New object=Loadshape.Shape_17 npts=1440 minterval=1 mult=(file=Daily_1min_100profiles\Load_profile_17.txt) useactual=true
New object=Loadshape.Shape_18 npts=1440 minterval=1 mult=(file=Daily_1min_100profiles\Load_profile_18.txt) useactual=true
New object=Loadshape.Shape_19 npts=1440 minterval=1 mult=(file=Daily_1min_100profiles\Load_profile_19.txt) useactual=true
New object=Loadshape.Shape_20 npts=1440 minterval=1 mult=(file=Daily_1min_100profiles\Load_profile_20.txt) useactual=true
New object=Loadshape.Shape_21 npts=1440 minterval=1 mult=(file=Daily_1min_100profiles\Load_profile_21.txt) useactual=true
New object=Loadshape.Shape_22 npts=1440 minterval=1 mult=(file=Daily_1min_100profiles\Load_profile_22.txt) useactual=true
New object=Loadshape.Shape_23 npts=1440 minterval=1 mult=(file=Daily_1min_100profiles\Load_profile_23.txt) useactual=true
New object=Loadshape.Shape_24 npts=1440 minterval=1 mult=(file=Daily_1min_100profiles\Load_profile_24.txt) useactual=true
New object=Loadshape.Shape_25 npts=1440 minterval=1 mult=(file=Daily_1min_100profiles\Load_profile_25.txt) useactual=true
New object=Loadshape.Shape_26 npts=1440 minterval=1 mult=(file=Daily_1min_100profiles\Load_profile_26.txt) useactual=true
New object=Loadshape.Shape_27 npts=1440 minterval=1 mult=(file=Daily_1min_100profiles\Load_profile_27.txt) useactual=true
New object=Loadshape.Shape_28 npts=1440 minterval=1 mult=(file=Daily_1min_100profiles\Load_profile_28.txt) useactual=true
New object=Loadshape.Shape_29 npts=1440 minterval=1 mult=(file=Daily_1min_100profiles\Load_profile_29.txt) useactual=true
New object=Loadshape.Shape_30 npts=1440 minterval=1 mult=(file=Daily_1min_100profiles\Load_profile_30.txt) useactual=true
New object=Loadshape.Shape_31 npts=1440 minterval=1 mult=(file=Daily_1min_100profiles\Load_profile_31.txt) useactual=true
New object=Loadshape.Shape_32 npts=1440 minterval=1 mult=(file=Daily_1min_100profiles\Load_profile_32.txt) useactual=true
New object=Loadshape.Shape_33 npts=1440 minterval=1 mult=(file=Daily_1min_100profiles\Load_profile_33.txt) useactual=true
New object=Loadshape.Shape_34 npts=1440 minterval=1 mult=(file=Daily_1min_100profiles\Load_profile_34.txt) useactual=true
New object=Loadshape.Shape_35 npts=1440 minterval=1 mult=(file=Daily_1min_100profiles\Load_profile_35.txt) useactual=true
New object=Loadshape.Shape_36 npts=1440 minterval=1 mult=(file=Daily_1min_100profiles\Load_profile_36.txt) useactual=true
New object=Loadshape.Shape_37 npts=1440 minterval=1 mult=(file=Daily_1min_100profiles\Load_profile_37.txt) useactual=true
New object=Loadshape.Shape_38 npts=1440 minterval=1 mult=(file=Daily_1min_100profiles\Load_profile_38.txt) useactual=true
New object=Loadshape.Shape_39 npts=1440 minterval=1 mult=(file=Daily_1min_100profiles\Load_profile_39.txt) useactual=true
New object=Loadshape.Shape_40 npts=1440 minterval=1 mult=(file=Daily_1min_100profiles\Load_profile_40.txt) useactual=true
New object=Loadshape.Shape_41 npts=1440 minterval=1 mult=(file=Daily_1min_100profiles\Load_profile_41.txt) useactual=true
New object=Loadshape.Shape_42 npts=1440 minterval=1 mult=(file=Daily_1min_100profiles\Load_profile_42.txt) useactual=true
New object=Loadshape.Shape_43 npts=1440 minterval=1 mult=(file=Daily_1min_100profiles\Load_profile_43.txt) useactual=true
New object=Loadshape.Shape_44 npts=1440 minterval=1 mult=(file=Daily_1min_100profiles\Load_profile_44.txt) useactual=true
New object=Loadshape.Shape_45 npts=1440 minterval=1 mult=(file=Daily_1min_100profiles\Load_profile_45.txt) useactual=true
New object=Loadshape.Shape_46 npts=1440 minterval=1 mult=(file=Daily_1min_100profiles\Load_profile_46.txt) useactual=true
New object=Loadshape.Shape_47 npts=1440 minterval=1 mult=(file=Daily_1min_100profiles\Load_profile_47.txt) useactual=true
New object=Loadshape.Shape_48 npts=1440 minterval=1 mult=(file=Daily_1min_100profiles\Load_profile_48.txt) useactual=true
New object=Loadshape.Shape_49 npts=1440 minterval=1 mult=(file=Daily_1min_100profiles\Load_profile_49.txt) useactual=true
New object=Loadshape.Shape_50 npts=1440 minterval=1 mult=(file=Daily_1min_100profiles\Load_profile_50.txt) useactual=true
New object=Loadshape.Shape_51 npts=1440 minterval=1 mult=(file=Daily_1min_100profiles\Load_profile_51.txt) useactual=true
New object=Loadshape.Shape_52 npts=1440 minterval=1 mult=(file=Daily_1min_100profiles\Load_profile_52.txt) useactual=true
New object=Loadshape.Shape_53 npts=1440 minterval=1 mult=(file=Daily_1min_100profiles\Load_profile_53.txt) useactual=true
New object=Loadshape.Shape_54 npts=1440 minterval=1 mult=(file=Daily_1min_100profiles\Load_profile_54.txt) useactual=true
New object=object=Loadshape.Shape_55 npts=1440 minterval=1 mult=(file=Daily_1min_100profiles\Load_profile_55.txt) useactual=true
! Redirect GrowthShape.DSS
New object=GrowthShape.default npts=2 year=[1,20] mult=[1.025,1.025]
! Redirect TCC_Curve.DSS
New object=TCC_Curve.a npts=5 C_array=[1,2.5,4.5,8,14] T_array=[0.15,0.07,0.05,0.045,0.045]
New object=TCC_Curve.d npts=5 C_array=[1,2.5,4.5,8,14] T_array=[6,0.7,0.2,0.06,0.02]
New object=TCC_Curve.tlink npts=7 C_array=[2,2.1,3,4,6,22,50] T_array=[300,100,10.1,4,1.4,0.1,0.02]
New object=TCC_Curve.klink npts=6 C_array=[2,2.2,3,4,6,30] T_array=[300,20,4,1.3,0.41,0.02]
New object=TCC_Curve.uv1547 npts=2 C_array=[0.5,0.9] T_array=[0.166,2]
New object=TCC_Curve.ov1547 npts=2 C_array=[1.1,1.2] T_array=[2,0.166]
New object=TCC_Curve.mod_inv npts=15 C_array=[1.1,1.3,1.5,2,3,4,5,6,7,8,9,10,20,50,100] T_array=[27.1053,9.9029,6.439,3.8032,2.4322,1.9458,1.6883,1.5255,1.4117,1.3267,1.2604,1.2068,0.9481,0.7468,0.6478]
New object=TCC_Curve.very_inv npts=15 C_array=[1.1,1.3,1.5,2,3,4,5,6,7,8,9,10,20,50,100] T_array=[93.872,28.9113,16.179,7.0277,2.9423,1.7983,1.3081,1.0513,0.8995,0.8023,0.7361,0.6891,0.5401,0.4988,0.493]
New object=TCC_Curve.ext_inv npts=15 C_array=[1.1,1.3,1.5,2,3,4,5,6,7,8,9,10,20,50,100] T_array=[134.407,40.9913,22.6817,9.5217,3.6467,2.0017,1.2967,0.9274,0.7092,0.5693,0.4742,0.4065,0.1924,0.133,0.1245]
New object=TCC_Curve.definite npts=3 C_array=[1,1.001,100] T_array=[300,1,1]
! Redirect Spectrum.DSS
New object=Spectrum.default NumHarm=7 harmonic=[1,3,5,7,9,11,13] %mag=[100,33,20,14,11,9,7] angle=[0,0,0,0,0,0,0]
New object=Spectrum.defaultload NumHarm=7 harmonic=[1,3,5,7,9,11,13] %mag=[100,1.5,20,14,1,9,7] angle=[0,180,180,180,180,180,180]
New object=Spectrum.defaultgen NumHarm=7 harmonic=[1,3,5,7,9,11,13] %mag=[100,5,3,1.5,1,0.7,0.5] angle=[0,0,0,0,0,0,0]
New object=Spectrum.defaultvsource NumHarm=1 harmonic=[1] %mag=[100] angle=[0]
New object=Spectrum.linear NumHarm=1 harmonic=[1] %mag=[100] angle=[0]
New object=Spectrum.pwm6 NumHarm=13 harmonic=[1,3,5,7,9,11,13,15,17,19,21,23,25] %mag=[100,4.4,76.5,62.7,2.9,24.8,12.7,0.5,7.1,8.4,0.9,4.4,3.3] angle=[-103,-5,28,-180,-33,-59,79,36,-253,-124,3,-30,86]
New object=Spectrum.dc6 NumHarm=10 harmonic=[1,3,5,7,9,11,13,15,17,19] %mag=[100,1.2,33.6,1.6,0.4,8.7,1.2,0.3,4.5,1.3] angle=[-75,28,156,29,-91,49,54,148,-57,-46]
! Redirect m1\Branches.dss
New object=Line.line1 bus1=1.1.2.3 bus2=2.1.2.3 phases=3 linecode=4c_70 Seasons=1 Ratings=[400] normamps=400 emergamps=600 length=1.098 units=m
New object=Line.line2 bus1=2.1.2.3 bus2=3.1.2.3 phases=3 linecode=4c_70 Seasons=1 Ratings=[400] normamps=400 emergamps=600 length=0.11511 units=m
New object=Line.line3 bus1=3.1.2.3 bus2=4.1.2.3 phases=3 linecode=4c_70 Seasons=1 Ratings=[400] normamps=400 emergamps=600 length=0.10784 units=m
New object=Line.line4 bus1=4.1.2.3 bus2=5.1.2.3 phases=3 linecode=4c_70 Seasons=1 Ratings=[400] normamps=400 emergamps=600 length=0.094021 units=m
New object=Line.line5 bus1=5.1.2.3 bus2=6.1.2.3 phases=3 linecode=4c_70 Seasons=1 Ratings=[400] normamps=400 emergamps=600 length=0.14812 units=m
New object=Line.line6 bus1=6.1.2.3 bus2=7.1.2.3 phases=3 linecode=4c_70 Seasons=1 Ratings=[400] normamps=400 emergamps=600 length=10.0863 units=m
New object=Line.line7 bus1=7.1.2.3 bus2=8.1.2.3 phases=3 linecode=4c_70 Seasons=1 Ratings=[400] normamps=400 emergamps=600 length=0.45175 units=m
New object=Line.line8 bus1=8.1.2.3 bus2=9.1.2.3 phases=3 linecode=4c_70 Seasons=1 Ratings=[400] normamps=400 emergamps=600 length=0.376 units=m
New object=Line.line9 bus1=9.1.2.3 bus2=10.1.2.3 phases=3 linecode=4c_70 Seasons=1 Ratings=[400] normamps=400 emergamps=600 length=0.32997 units=m
New object=Line.line10 bus1=10.1.2.3 bus2=11.1.2.3 phases=3 linecode=4c_70 Seasons=1 Ratings=[400] normamps=400 emergamps=600 length=0.24622 units=m
New object=Line.line11 bus1=11.1.2.3 bus2=12.1.2.3 phases=3 linecode=4c_70 Seasons=1 Ratings=[400] normamps=400 emergamps=600 length=0.23114 units=m
New object=Line.line12 bus1=12.1.2.3 bus2=13.1.2.3 phases=3 linecode=4c_70 Seasons=1 Ratings=[400] normamps=400 emergamps=600 length=0.14213 units=m
New object=Line.line13 bus1=13.1.2.3 bus2=14.1.2.3 phases=3 linecode=4c_70 Seasons=1 Ratings=[400] normamps=400 emergamps=600 length=0.35384 units=m
New object=Line.line14 bus1=14.1.2.3 bus2=15.1.2.3 phases=3 linecode=4c_70 Seasons=1 Ratings=[400] normamps=400 emergamps=600 length=2.8664 units=m
New object=Line.line15 bus1=15.1.2.3 bus2=16.1.2.3 phases=3 linecode=2c_007 Seasons=1 Ratings=[400] normamps=400 emergamps=600 length=0.09654 units=m
New object=Line.line17 bus1=16.1.2.3 bus2=18.1.2.3 phases=3 linecode=2c_007 Seasons=1 Ratings=[400] normamps=400 emergamps=600 length=0.044045 units=m
New object=Line.line19 bus1=18.1.2.3 bus2=20.1.2.3 phases=3 linecode=2c_007 Seasons=1 Ratings=[400] normamps=400 emergamps=600 length=0.046174 units=m
New object=Line.line21 bus1=20.1.2.3 bus2=22.1.2.3 phases=3 linecode=2c_007 Seasons=1 Ratings=[400] normamps=400 emergamps=600 length=0.041976 units=m
New object=Line.line23 bus1=22.1.2.3 bus2=24.1.2.3 phases=3 linecode=2c_007 Seasons=1 Ratings=[400] normamps=400 emergamps=600 length=0.051245 units=m
New object=Line.line25 bus1=24.1.2.3 bus2=26.1.2.3 phases=3 linecode=2c_007 Seasons=1 Ratings=[400] normamps=400 emergamps=600 length=0.055902 units=m
New object=Line.line28 bus1=26.1.2.3 bus2=29.1.2.3 phases=3 linecode=2c_007 Seasons=1 Ratings=[400] normamps=400 emergamps=600 length=0.054562 units=m
New object=Line.line32 bus1=29.1.2.3 bus2=33.1.2.3 phases=3 linecode=2c_007 Seasons=1 Ratings=[400] normamps=400 emergamps=600 length=0.14629 units=m
New object=Line.line37 bus1=33.1.2.3 bus2=38.1.2.3 phases=3 linecode=2c_007 Seasons=1 Ratings=[400] normamps=400 emergamps=600 length=0.13648 units=m
New object=Line.line43 bus1=38.1.2.3 bus2=44.1.2.3 phases=3 linecode=2c_007 Seasons=1 Ratings=[400] normamps=400 emergamps=600 length=0.033838 units=m
New object=Line.line49 bus1=44.1.2.3 bus2=50.1.2.3 phases=3 linecode=2c_007 Seasons=1 Ratings=[400] normamps=400 emergamps=600 length=0.048104 units=m
New object=Line.line55 bus1=50.1.2.3 bus2=56.1.2.3 phases=3 linecode=2c_007 Seasons=1 Ratings=[400] normamps=400 emergamps=600 length=0.087664 units=m
New object=Line.line61 bus1=56.1.2.3 bus2=62.1.2.3 phases=3 linecode=2c_007 Seasons=1 Ratings=[400] normamps=400 emergamps=600 length=0.078 units=m
New object=Line.line68 bus1=62.1.2.3 bus2=69.1.2.3 phases=3 linecode=2c_007 Seasons=1 Ratings=[400] normamps=400 emergamps=600 length=0.083241 units=m
New object=Line.line76 bus1=69.1.2.3 bus2=77.1.2.3 phases=3 linecode=2c_007 Seasons=1 Ratings=[400] normamps=400 emergamps=600 length=0.38907 units=m
New object=Line.line81 bus1=77.1.2.3 bus2=82.1.2.3 phases=3 linecode=2c_007 Seasons=1 Ratings=[400] normamps=400 emergamps=600 length=0.51088 units=m
New object=Line.line86 bus1=82.1.2.3 bus2=87.1.2.3 phases=3 linecode=2c_007 Seasons=1 Ratings=[400] normamps=400 emergamps=600 length=0.31045 units=m
New object=Line.line90 bus1=87.1.2.3 bus2=91.1.2.3 phases=3 linecode=2c_007 Seasons=1 Ratings=[400] normamps=400 emergamps=600 length=0.11206 units=m
New object=Line.line93 bus1=91.1.2.3 bus2=94.1.2.3 phases=3 linecode=2c_007 Seasons=1 Ratings=[400] normamps=400 emergamps=600 length=0.034785 units=m
New object=Line.line96 bus1=94.1.2.3 bus2=97.1.2.3 phases=3 linecode=2c_007 Seasons=1 Ratings=[400] normamps=400 emergamps=600 length=0.03677 units=m
New object=Line.line99 bus1=97.1.2.3 bus2=100.1.2.3 phases=3 linecode=2c_007 Seasons=1 Ratings=[400] normamps=400 emergamps=600 length=0.089588 units=m
New object=Line.line102 bus1=100.1.2.3 bus2=103.1.2.3 phases=3 linecode=2c_007 Seasons=1 Ratings=[400] normamps=400 emergamps=600 length=0.28583 units=m
New object=Line.line16 bus1=15.1.2.3 bus2=17.1.2.3 phases=3 linecode=4c_70 Seasons=1 Ratings=[400] normamps=400 emergamps=600 length=3.476 units=m
New object=Line.line18 bus1=17.1.2.3 bus2=19.1.2.3 phases=3 linecode=4c_70 Seasons=1 Ratings=[400] normamps=400 emergamps=600 length=0.23917 units=m
New object=Line.line20 bus1=19.1.2.3 bus2=21.1.2.3 phases=3 linecode=4c_70 Seasons=1 Ratings=[400] normamps=400 emergamps=600 length=0.26856 units=m
New object=Line.line22 bus1=21.1.2.3 bus2=23.1.2.3 phases=3 linecode=4c_70 Seasons=1 Ratings=[400] normamps=400 emergamps=600 length=0.43727 units=m
New object=Line.line24 bus1=23.1.2.3 bus2=25.1.2.3 phases=3 linecode=4c_70 Seasons=1 Ratings=[400] normamps=400 emergamps=600 length=0.7955 units=m
New object=Line.line26 bus1=25.1.2.3 bus2=27.1.2.3 phases=3 linecode=2c_16 Seasons=1 Ratings=[400] normamps=400 emergamps=600 length=5.9049 units=m
New object=Line.line29 bus1=27.1.2.3 bus2=30.1.2.3 phases=3 linecode=2c_16 Seasons=1 Ratings=[400] normamps=400 emergamps=600 length=1.6265 units=m
New object=Line.line33 bus1=30.1.2.3 bus2=34.1.2.3 phases=3 linecode=2c_16 Seasons=1 Ratings=[400] normamps=400 emergamps=600 length=3.7248 units=m
New object=Line.line30 bus1=27.1.2.3 bus2=31.1.2.3 phases=3 linecode=2c_16 Seasons=1 Ratings=[400] normamps=400 emergamps=600 length=1.5847 units=m
New object=Line.line34 bus1=31.1.2.3 bus2=35.1.2.3 phases=3 linecode=2c_16 Seasons=1 Ratings=[400] normamps=400 emergamps=600 length=0.053666 units=m
New object=Line.line38 bus1=35.1.2.3 bus2=39.1.2.3 phases=3 linecode=2c_16 Seasons=1 Ratings=[400] normamps=400 emergamps=600 length=0.077162 units=m
New object=Line.line44 bus1=39.1.2.3 bus2=45.1.2.3 phases=3 linecode=2c_16 Seasons=1 Ratings=[400] normamps=400 emergamps=600 length=0.098955 units=m
New object=Line.line50 bus1=45.1.2.3 bus2=51.1.2.3 phases=3 linecode=2c_16 Seasons=1 Ratings=[400] normamps=400 emergamps=600 length=0.241 units=m
New object=Line.line56 bus1=51.1.2.3 bus2=57.1.2.3 phases=3 linecode=2c_16 Seasons=1 Ratings=[400] normamps=400 emergamps=600 length=0.20634 units=m
New object=Line.line62 bus1=57.1.2.3 bus2=63.1.2.3 phases=3 linecode=2c_16 Seasons=1 Ratings=[400] normamps=400 emergamps=600 length=0.98912 units=m
New object=Line.line69 bus1=63.1.2.3 bus2=70.1.2.3 phases=3 linecode=2c_16 Seasons=1 Ratings=[400] normamps=400 emergamps=600 length=3.4962 units=m
New object=Line.line27 bus1=25.1.2.3 bus2=28.1.2.3 phases=3 linecode=4c_70 Seasons=1 Ratings=[400] normamps=400 emergamps=600 length=9.9686 units=m
New object=Line.line31 bus1=28.1.2.3 bus2=32.1.2.3 phases=3 linecode=4c_70 Seasons=1 Ratings=[400] normamps=400 emergamps=600 length=2.6538 units=m
New object=Line.line35 bus1=32.1.2.3 bus2=36.1.2.3 phases=3 linecode=2c_16 Seasons=1 Ratings=[400] normamps=400 emergamps=600 length=5.7265 units=m
New object=Line.line39 bus1=36.1.2.3 bus2=40.1.2.3 phases=3 linecode=2c_16 Seasons=1 Ratings=[400] normamps=400 emergamps=600 length=0.40004 units=m
New object=Line.line45 bus1=40.1.2.3 bus2=46.1.2.3 phases=3 linecode=2c_16 Seasons=1 Ratings=[400] normamps=400 emergamps=600 length=0.18031 units=m
New object=Line.line51 bus1=46.1.2.3 bus2=52.1.2.3 phases=3 linecode=2c_16 Seasons=1 Ratings=[400] normamps=400 emergamps=600 length=0.19109 units=m
New object=Line.line57 bus1=52.1.2.3 bus2=58.1.2.3 phases=3 linecode=2c_16 Seasons=1 Ratings=[400] normamps=400 emergamps=600 length=0.182 units=m
New object=Line.line63 bus1=58.1.2.3 bus2=64.1.2.3 phases=3 linecode=2c_16 Seasons=1 Ratings=[400] normamps=400 emergamps=600 length=0.109 units=m
New object=Line.line70 bus1=64.1.2.3 bus2=71.1.2.3 phases=3 linecode=2c_16 Seasons=1 Ratings=[400] normamps=400 emergamps=600 length=0.21385 units=m
New object=Line.line77 bus1=71.1.2.3 bus2=78.1.2.3 phases=3 linecode=2c_16 Seasons=1 Ratings=[400] normamps=400 emergamps=600 length=1.0838 units=m
New object=Line.line82 bus1=78.1.2.3 bus2=83.1.2.3 phases=3 linecode=2c_16 Seasons=1 Ratings=[400] normamps=400 emergamps=600 length=4.084 units=m
New object=Line.line40 bus1=36.1.2.3 bus2=41.1.2.3 phases=3 linecode=2c_16 Seasons=1 Ratings=[400] normamps=400 emergamps=600 length=1.8063 units=m
New object=Line.line46 bus1=41.1.2.3 bus2=47.1.2.3 phases=3 linecode=2c_16 Seasons=1 Ratings=[400] normamps=400 emergamps=600 length=4.3463 units=m
New object=Line.line36 bus1=32.1.2.3 bus2=37.1.2.3 phases=3 linecode=4c_70 Seasons=1 Ratings=[400] normamps=400 emergamps=600 length=8.0244 units=m
New object=Line.line41 bus1=37.1.2.3 bus2=42.1.2.3 phases=3 linecode=4c_70 Seasons=1 Ratings=[400] normamps=400 emergamps=600 length=5.5684 units=m
New object=Line.line47 bus1=42.1.2.3 bus2=48.1.2.3 phases=3 linecode=4c_70 Seasons=1 Ratings=[400] normamps=400 emergamps=600 length=4.2078 units=m
New object=Line.line52 bus1=48.1.2.3 bus2=53.1.2.3 phases=3 linecode=4c_70 Seasons=1 Ratings=[400] normamps=400 emergamps=600 length=0.60668 units=m
New object=Line.line58 bus1=53.1.2.3 bus2=59.1.2.3 phases=3 linecode=4c_70 Seasons=1 Ratings=[400] normamps=400 emergamps=600 length=2.7481 units=m
New object=Line.line64 bus1=59.1.2.3 bus2=65.1.2.3 phases=3 linecode=4c_70 Seasons=1 Ratings=[400] normamps=400 emergamps=600 length=0.55868 units=m
New object=Line.line71 bus1=65.1.2.3 bus2=72.1.2.3 phases=3 linecode=4c_70 Seasons=1 Ratings=[400] normamps=400 emergamps=600 length=6.6006 units=m
New object=Line.line78 bus1=72.1.2.3 bus2=79.1.2.3 phases=3 linecode=4c_70 Seasons=1 Ratings=[400] normamps=400 emergamps=600 length=2.3008 units=m
New object=Line.line83 bus1=79.1.2.3 bus2=84.1.2.3 phases=3 linecode=4c_70 Seasons=1 Ratings=[400] normamps=400 emergamps=600 length=0.50211 units=m
New object=Line.line87 bus1=84.1.2.3 bus2=88.1.2.3 phases=3 linecode=4c_70 Seasons=1 Ratings=[400] normamps=400 emergamps=600 length=1.0182 units=m
New object=Line.line91 bus1=88.1.2.3 bus2=92.1.2.3 phases=3 linecode=4c_70 Seasons=1 Ratings=[400] normamps=400 emergamps=600 length=0.96021 units=m
New object=Line.line94 bus1=92.1.2.3 bus2=95.1.2.3 phases=3 linecode=4c_70 Seasons=1 Ratings=[400] normamps=400 emergamps=600 length=0.55811 units=m
New object=Line.line97 bus1=95.1.2.3 bus2=98.1.2.3 phases=3 linecode=4c_70 Seasons=1 Ratings=[400] normamps=400 emergamps=600 length=0.36859 units=m
New object=Line.line100 bus1=98.1.2.3 bus2=101.1.2.3 phases=3 linecode=4c_70 Seasons=1 Ratings=[400] normamps=400 emergamps=600 length=0.50892 units=m
New object=Line.line103 bus1=101.1.2.3 bus2=104.1.2.3 phases=3 linecode=4c_35 Seasons=1 Ratings=[400] normamps=400 emergamps=600 length=0.28838 units=m
New object=Line.line106 bus1=104.1.2.3 bus2=107.1.2.3 phases=3 linecode=4c_35 Seasons=1 Ratings=[400] normamps=400 emergamps=600 length=0.3489 units=m
New object=Line.line109 bus1=107.1.2.3 bus2=110.1.2.3 phases=3 linecode=4c_35 Seasons=1 Ratings=[400] normamps=400 emergamps=600 length=0.4044 units=m
New object=Line.line112 bus1=110.1.2.3 bus2=113.1.2.3 phases=3 linecode=4c_35 Seasons=1 Ratings=[400] normamps=400 emergamps=600 length=0.61659 units=m
New object=Line.line115 bus1=113.1.2.3 bus2=116.1.2.3 phases=3 linecode=4c_35 Seasons=1 Ratings=[400] normamps=400 emergamps=600 length=0.79271 units=m
New object=Line.line119 bus1=116.1.2.3 bus2=120.1.2.3 phases=3 linecode=4c_35 Seasons=1 Ratings=[400] normamps=400 emergamps=600 length=0.56909 units=m
New object=Line.line124 bus1=120.1.2.3 bus2=125.1.2.3 phases=3 linecode=4c_35 Seasons=1 Ratings=[400] normamps=400 emergamps=600 length=0.80412 units=m
New object=Line.line129 bus1=125.1.2.3 bus2=130.1.2.3 phases=3 linecode=4c_35 Seasons=1 Ratings=[400] normamps=400 emergamps=600 length=0.87 units=m
New object=Line.line135 bus1=130.1.2.3 bus2=136.1.2.3 phases=3 linecode=4c_35 Seasons=1 Ratings=[400] normamps=400 emergamps=600 length=0.82048 units=m
New object=Line.line141 bus1=136.1.2.3 bus2=142.1.2.3 phases=3 linecode=4c_35 Seasons=1 Ratings=[400] normamps=400 emergamps=600 length=1.349 units=m
New object=Line.line147 bus1=142.1.2.3 bus2=148.1.2.3 phases=3 linecode=4c_35 Seasons=1 Ratings=[400] normamps=400 emergamps=600 length=6.4142 units=m
New object=Line.line154 bus1=148.1.2.3 bus2=155.1.2.3 phases=3 linecode=4c_35 Seasons=1 Ratings=[400] normamps=400 emergamps=600 length=1.3973 units=m
New object=Line.line161 bus1=155.1.2.3 bus2=162.1.2.3 phases=3 linecode=2c_16 Seasons=1 Ratings=[400] normamps=400 emergamps=600 length=11.7422 units=m
New object=Line.line169 bus1=162.1.2.3 bus2=170.1.2.3 phases=3 linecode=2c_16 Seasons=1 Ratings=[400] normamps=400 emergamps=600 length=2.2183 units=m
New object=Line.line177 bus1=170.1.2.3 bus2=178.1.2.3 phases=3 linecode=2c_16 Seasons=1 Ratings=[400] normamps=400 emergamps=600 length=4.5768 units=m
New object=Line.line162 bus1=155.1.2.3 bus2=163.1.2.3 phases=3 linecode=4c_35 Seasons=1 Ratings=[400] normamps=400 emergamps=600 length=5.2844 units=m
New object=Line.line170 bus1=163.1.2.3 bus2=171.1.2.3 phases=3 linecode=4c_35 Seasons=1 Ratings=[400] normamps=400 emergamps=600 length=7.0156 units=m
New object=Line.line178 bus1=171.1.2.3 bus2=179.1.2.3 phases=3 linecode=4c_35 Seasons=1 Ratings=[400] normamps=400 emergamps=600 length=1.1818 units=m
New object=Line.line186 bus1=179.1.2.3 bus2=187.1.2.3 phases=3 linecode=4c_35 Seasons=1 Ratings=[400] normamps=400 emergamps=600 length=4.6507 units=m
New object=Line.line195 bus1=187.1.2.3 bus2=196.1.2.3 phases=3 linecode=4c_35 Seasons=1 Ratings=[400] normamps=400 emergamps=600 length=8.3036 units=m
New object=Line.line205 bus1=196.1.2.3 bus2=206.1.2.3 phases=3 linecode=2c_16 Seasons=1 Ratings=[400] normamps=400 emergamps=600 length=3.2475 units=m
New object=Line.line215 bus1=206.1.2.3 bus2=216.1.2.3 phases=3 linecode=2c_16 Seasons=1 Ratings=[400] normamps=400 emergamps=600 length=10.6295 units=m
New object=Line.line224 bus1=216.1.2.3 bus2=225.1.2.3 phases=3 linecode=2c_16 Seasons=1 Ratings=[400] normamps=400 emergamps=600 length=4.5822 units=m
New object=Line.line206 bus1=196.1.2.3 bus2=207.1.2.3 phases=3 linecode=4c_35 Seasons=1 Ratings=[400] normamps=400 emergamps=600 length=2.1371 units=m
New object=Line.line216 bus1=207.1.2.3 bus2=217.1.2.3 phases=3 linecode=4c_35 Seasons=1 Ratings=[400] normamps=400 emergamps=600 length=3.8571 units=m
New object=Line.line225 bus1=217.1.2.3 bus2=226.1.2.3 phases=3 linecode=4c_35 Seasons=1 Ratings=[400] normamps=400 emergamps=600 length=1.3772 units=m
New object=Line.line232 bus1=226.1.2.3 bus2=233.1.2.3 phases=3 linecode=2c_16 Seasons=1 Ratings=[400] normamps=400 emergamps=600 length=11.8949 units=m
New object=Line.line240 bus1=233.1.2.3 bus2=241.1.2.3 phases=3 linecode=2c_16 Seasons=1 Ratings=[400] normamps=400 emergamps=600 length=1.7274 units=m
New object=Line.line247 bus1=241.1.2.3 bus2=248.1.2.3 phases=3 linecode=2c_16 Seasons=1 Ratings=[400] normamps=400 emergamps=600 length=5.3022 units=m
New object=Line.line248 bus1=241.1.2.3 bus2=249.1.2.3 phases=3 linecode=2c_16 Seasons=1 Ratings=[400] normamps=400 emergamps=600 length=5.3022 units=m
New object=Line.line233 bus1=226.1.2.3 bus2=234.1.2.3 phases=3 linecode=4c_35 Seasons=1 Ratings=[400] normamps=400 emergamps=600 length=1.1273 units=m
New object=Line.line179 bus1=171.1.2.3 bus2=180.1.2.3 phases=3 linecode=2c_16 Seasons=1 Ratings=[400] normamps=400 emergamps=600 length=2.4224 units=m
New object=Line.line187 bus1=180.1.2.3 bus2=188.1.2.3 phases=3 linecode=2c_16 Seasons=1 Ratings=[400] normamps=400 emergamps=600 length=10.0258 units=m
New object=Line.line196 bus1=188.1.2.3 bus2=197.1.2.3 phases=3 linecode=2c_16 Seasons=1 Ratings=[400] normamps=400 emergamps=600 length=1.9595 units=m
New object=Line.line207 bus1=197.1.2.3 bus2=208.1.2.3 phases=3 linecode=2c_16 Seasons=1 Ratings=[400] normamps=400 emergamps=600 length=4.9541 units=m
New object=Line.line197 bus1=188.1.2.3 bus2=198.1.2.3 phases=3 linecode=2c_16 Seasons=1 Ratings=[400] normamps=400 emergamps=600 length=1.1325 units=m
New object=Line.line208 bus1=198.1.2.3 bus2=209.1.2.3 phases=3 linecode=2c_16 Seasons=1 Ratings=[400] normamps=400 emergamps=600 length=0.16008 units=m
New object=Line.line217 bus1=209.1.2.3 bus2=218.1.2.3 phases=3 linecode=2c_16 Seasons=1 Ratings=[400] normamps=400 emergamps=600 length=0.1291 units=m
New object=Line.line226 bus1=218.1.2.3 bus2=227.1.2.3 phases=3 linecode=2c_16 Seasons=1 Ratings=[400] normamps=400 emergamps=600 length=0.10317 units=m
New object=Line.line234 bus1=227.1.2.3 bus2=235.1.2.3 phases=3 linecode=2c_16 Seasons=1 Ratings=[400] normamps=400 emergamps=600 length=0.15749 units=m
New object=Line.line241 bus1=235.1.2.3 bus2=242.1.2.3 phases=3 linecode=2c_16 Seasons=1 Ratings=[400] normamps=400 emergamps=600 length=0.18461 units=m
New object=Line.line249 bus1=242.1.2.3 bus2=250.1.2.3 phases=3 linecode=2c_16 Seasons=1 Ratings=[400] normamps=400 emergamps=600 length=0.28355 units=m
New object=Line.line256 bus1=250.1.2.3 bus2=257.1.2.3 phases=3 linecode=2c_16 Seasons=1 Ratings=[400] normamps=400 emergamps=600 length=1.0376 units=m
New object=Line.line263 bus1=257.1.2.3 bus2=264.1.2.3 phases=3 linecode=2c_16 Seasons=1 Ratings=[400] normamps=400 emergamps=600 length=5.05 units=m
New object=Line.line104 bus1=101.1.2.3 bus2=105.1.2.3 phases=3 linecode=4c_70 Seasons=1 Ratings=[400] normamps=400 emergamps=600 length=0.33602 units=m
New object=Line.line107 bus1=105.1.2.3 bus2=108.1.2.3 phases=3 linecode=4c_70 Seasons=1 Ratings=[400] normamps=400 emergamps=600 length=0.19054 units=m
New object=Line.line110 bus1=108.1.2.3 bus2=111.1.2.3 phases=3 linecode=4c_70 Seasons=1 Ratings=[400] normamps=400 emergamps=600 length=7.5182 units=m
New object=Line.line113 bus1=111.1.2.3 bus2=114.1.2.3 phases=3 linecode=4c_70 Seasons=1 Ratings=[400] normamps=400 emergamps=600 length=0.75316 units=m
New object=Line.line116 bus1=114.1.2.3 bus2=117.1.2.3 phases=3 linecode=4c_35 Seasons=1 Ratings=[400] normamps=400 emergamps=600 length=1.1056 units=m
New object=Line.line120 bus1=117.1.2.3 bus2=121.1.2.3 phases=3 linecode=2c_007 Seasons=1 Ratings=[400] normamps=400 emergamps=600 length=0.19481 units=m
New object=Line.line125 bus1=121.1.2.3 bus2=126.1.2.3 phases=3 linecode=2c_007 Seasons=1 Ratings=[400] normamps=400 emergamps=600 length=0.16869 units=m
New object=Line.line130 bus1=126.1.2.3 bus2=131.1.2.3 phases=3 linecode=2c_007 Seasons=1 Ratings=[400] normamps=400 emergamps=600 length=0.11915 units=m
New object=Line.line136 bus1=131.1.2.3 bus2=137.1.2.3 phases=3 linecode=2c_007 Seasons=1 Ratings=[400] normamps=400 emergamps=600 length=0.18436 units=m
New object=Line.line142 bus1=137.1.2.3 bus2=143.1.2.3 phases=3 linecode=2c_007 Seasons=1 Ratings=[400] normamps=400 emergamps=600 length=0.21781 units=m
New object=Line.line148 bus1=143.1.2.3 bus2=149.1.2.3 phases=3 linecode=2c_007 Seasons=1 Ratings=[400] normamps=400 emergamps=600 length=0.19401 units=m
New object=Line.line155 bus1=149.1.2.3 bus2=156.1.2.3 phases=3 linecode=2c_007 Seasons=1 Ratings=[400] normamps=400 emergamps=600 length=0.2191 units=m
New object=Line.line163 bus1=156.1.2.3 bus2=164.1.2.3 phases=3 linecode=2c_007 Seasons=1 Ratings=[400] normamps=400 emergamps=600 length=0.20342 units=m
New object=Line.line171 bus1=164.1.2.3 bus2=172.1.2.3 phases=3 linecode=2c_007 Seasons=1 Ratings=[400] normamps=400 emergamps=600 length=0.1727 units=m
New object=Line.line180 bus1=172.1.2.3 bus2=181.1.2.3 phases=3 linecode=2c_007 Seasons=1 Ratings=[400] normamps=400 emergamps=600 length=0.17961 units=m
New object=Line.line188 bus1=181.1.2.3 bus2=189.1.2.3 phases=3 linecode=2c_007 Seasons=1 Ratings=[400] normamps=400 emergamps=600 length=0.15412 units=m
New object=Line.line198 bus1=189.1.2.3 bus2=199.1.2.3 phases=3 linecode=2c_007 Seasons=1 Ratings=[400] normamps=400 emergamps=600 length=0.19148 units=m
New object=Line.line209 bus1=199.1.2.3 bus2=210.1.2.3 phases=3 linecode=2c_007 Seasons=1 Ratings=[400] normamps=400 emergamps=600 length=0.44838 units=m
New object=Line.line218 bus1=210.1.2.3 bus2=219.1.2.3 phases=3 linecode=2c_007 Seasons=1 Ratings=[400] normamps=400 emergamps=600 length=0.67215 units=m
New object=Line.line121 bus1=117.1.2.3 bus2=122.1.2.3 phases=3 linecode=4c_35 Seasons=1 Ratings=[400] normamps=400 emergamps=600 length=0.53831 units=m
New object=Line.line126 bus1=122.1.2.3 bus2=127.1.2.3 phases=3 linecode=4c_35 Seasons=1 Ratings=[400] normamps=400 emergamps=600 length=2.5288 units=m
New object=Line.line131 bus1=127.1.2.3 bus2=132.1.2.3 phases=3 linecode=2c_16 Seasons=1 Ratings=[400] normamps=400 emergamps=600 length=3.8212 units=m
New object=Line.line137 bus1=132.1.2.3 bus2=138.1.2.3 phases=3 linecode=2c_16 Seasons=1 Ratings=[400] normamps=400 emergamps=600 length=0.32908 units=m
New object=Line.line143 bus1=138.1.2.3 bus2=144.1.2.3 phases=3 linecode=2c_16 Seasons=1 Ratings=[400] normamps=400 emergamps=600 length=0.32289 units=m
New object=Line.line149 bus1=144.1.2.3 bus2=150.1.2.3 phases=3 linecode=2c_16 Seasons=1 Ratings=[400] normamps=400 emergamps=600 length=0.26072 units=m
New object=Line.line156 bus1=150.1.2.3 bus2=157.1.2.3 phases=3 linecode=2c_16 Seasons=1 Ratings=[400] normamps=400 emergamps=600 length=0.39132 units=m
New object=Line.line164 bus1=157.1.2.3 bus2=165.1.2.3 phases=3 linecode=2c_16 Seasons=1 Ratings=[400] normamps=400 emergamps=600 length=0.47178 units=m
New object=Line.line172 bus1=165.1.2.3 bus2=173.1.2.3 phases=3 linecode=2c_16 Seasons=1 Ratings=[400] normamps=400 emergamps=600 length=0.35642 units=m
New object=Line.line181 bus1=173.1.2.3 bus2=182.1.2.3 phases=3 linecode=2c_16 Seasons=1 Ratings=[400] normamps=400 emergamps=600 length=0.41244 units=m
New object=Line.line189 bus1=182.1.2.3 bus2=190.1.2.3 phases=3 linecode=2c_16 Seasons=1 Ratings=[400] normamps=400 emergamps=600 length=0.3878 units=m
New object=Line.line199 bus1=190.1.2.3 bus2=200.1.2.3 phases=3 linecode=2c_16 Seasons=1 Ratings=[400] normamps=400 emergamps=600 length=0.41725 units=m
New object=Line.line210 bus1=200.1.2.3 bus2=211.1.2.3 phases=3 linecode=2c_16 Seasons=1 Ratings=[400] normamps=400 emergamps=600 length=0.63785 units=m
New object=Line.line219 bus1=211.1.2.3 bus2=220.1.2.3 phases=3 linecode=2c_16 Seasons=1 Ratings=[400] normamps=400 emergamps=600 length=1.7419 units=m
New object=Line.line227 bus1=220.1.2.3 bus2=228.1.2.3 phases=3 linecode=2c_16 Seasons=1 Ratings=[400] normamps=400 emergamps=600 length=0.14852 units=m
New object=Line.line235 bus1=228.1.2.3 bus2=236.1.2.3 phases=3 linecode=2c_16 Seasons=1 Ratings=[400] normamps=400 emergamps=600 length=0.0686 units=m
New object=Line.line242 bus1=236.1.2.3 bus2=243.1.2.3 phases=3 linecode=2c_16 Seasons=1 Ratings=[400] normamps=400 emergamps=600 length=0.073376 units=m
New object=Line.line250 bus1=243.1.2.3 bus2=251.1.2.3 phases=3 linecode=2c_16 Seasons=1 Ratings=[400] normamps=400 emergamps=600 length=0.070114 units=m
New object=Line.line257 bus1=251.1.2.3 bus2=258.1.2.3 phases=3 linecode=2c_16 Seasons=1 Ratings=[400] normamps=400 emergamps=600 length=0.07811 units=m
New object=Line.line264 bus1=258.1.2.3 bus2=265.1.2.3 phases=3 linecode=2c_16 Seasons=1 Ratings=[400] normamps=400 emergamps=600 length=0.16123 units=m
New object=Line.line272 bus1=265.1.2.3 bus2=273.1.2.3 phases=3 linecode=2c_16 Seasons=1 Ratings=[400] normamps=400 emergamps=600 length=0.16792 units=m
New object=Line.line280 bus1=273.1.2.3 bus2=281.1.2.3 phases=3 linecode=2c_16 Seasons=1 Ratings=[400] normamps=400 emergamps=600 length=0.63854 units=m
New object=Line.line288 bus1=281.1.2.3 bus2=289.1.2.3 phases=3 linecode=2c_16 Seasons=1 Ratings=[400] normamps=400 emergamps=600 length=3.3901 units=m
New object=Line.line132 bus1=127.1.2.3 bus2=133.1.2.3 phases=3 linecode=4c_35 Seasons=1 Ratings=[400] normamps=400 emergamps=600 length=7.1782 units=m
New object=Line.line138 bus1=133.1.2.3 bus2=139.1.2.3 phases=3 linecode=4c_35 Seasons=1 Ratings=[400] normamps=400 emergamps=600 length=5.3402 units=m
New object=Line.line144 bus1=139.1.2.3 bus2=145.1.2.3 phases=3 linecode=4c_35 Seasons=1 Ratings=[400] normamps=400 emergamps=600 length=3.5762 units=m
New object=Line.line150 bus1=145.1.2.3 bus2=151.1.2.3 phases=3 linecode=4c_35 Seasons=1 Ratings=[400] normamps=400 emergamps=600 length=3.5713 units=m
New object=Line.line157 bus1=151.1.2.3 bus2=158.1.2.3 phases=3 linecode=4c_35 Seasons=1 Ratings=[400] normamps=400 emergamps=600 length=9.4713 units=m
New object=Line.line165 bus1=158.1.2.3 bus2=166.1.2.3 phases=3 linecode=4c_35 Seasons=1 Ratings=[400] normamps=400 emergamps=600 length=3.2899 units=m
New object=Line.line173 bus1=166.1.2.3 bus2=174.1.2.3 phases=3 linecode=4c_35 Seasons=1 Ratings=[400] normamps=400 emergamps=600 length=3.9183 units=m
New object=Line.line182 bus1=174.1.2.3 bus2=183.1.2.3 phases=3 linecode=4c_35 Seasons=1 Ratings=[400] normamps=400 emergamps=600 length=0.58763 units=m
New object=Line.line190 bus1=183.1.2.3 bus2=191.1.2.3 phases=3 linecode=4c_35 Seasons=1 Ratings=[400] normamps=400 emergamps=600 length=2.3151 units=m
New object=Line.line200 bus1=191.1.2.3 bus2=201.1.2.3 phases=3 linecode=4c_35 Seasons=1 Ratings=[400] normamps=400 emergamps=600 length=0.9314 units=m
New object=Line.line191 bus1=183.1.2.3 bus2=192.1.2.3 phases=3 linecode=4c_35 Seasons=1 Ratings=[400] normamps=400 emergamps=600 length=0.27791 units=m
New object=Line.line201 bus1=192.1.2.3 bus2=202.1.2.3 phases=3 linecode=4c_35 Seasons=1 Ratings=[400] normamps=400 emergamps=600 length=0.16447 units=m
New object=Line.line211 bus1=202.1.2.3 bus2=212.1.2.3 phases=3 linecode=4c_35 Seasons=1 Ratings=[400] normamps=400 emergamps=600 length=0.15526 units=m
New object=Line.line220 bus1=212.1.2.3 bus2=221.1.2.3 phases=3 linecode=4c_35 Seasons=1 Ratings=[400] normamps=400 emergamps=600 length=0.17006 units=m
New object=Line.line228 bus1=221.1.2.3 bus2=229.1.2.3 phases=3 linecode=4c_35 Seasons=1 Ratings=[400] normamps=400 emergamps=600 length=0.23273 units=m
New object=Line.line236 bus1=229.1.2.3 bus2=237.1.2.3 phases=3 linecode=4c_35 Seasons=1 Ratings=[400] normamps=400 emergamps=600 length=0.20742 units=m
New object=Line.line243 bus1=237.1.2.3 bus2=244.1.2.3 phases=3 linecode=4c_35 Seasons=1 Ratings=[400] normamps=400 emergamps=600 length=0.16881 units=m
New object=Line.line251 bus1=244.1.2.3 bus2=252.1.2.3 phases=3 linecode=4c_35 Seasons=1 Ratings=[400] normamps=400 emergamps=600 length=0.13297 units=m
New object=Line.line258 bus1=252.1.2.3 bus2=259.1.2.3 phases=3 linecode=4c_35 Seasons=1 Ratings=[400] normamps=400 emergamps=600 length=0.17323 units=m
New object=Line.line265 bus1=259.1.2.3 bus2=266.1.2.3 phases=3 linecode=4c_35 Seasons=1 Ratings=[400] normamps=400 emergamps=600 length=0.19436 units=m
New object=Line.line273 bus1=266.1.2.3 bus2=274.1.2.3 phases=3 linecode=4c_35 Seasons=1 Ratings=[400] normamps=400 emergamps=600 length=0.17888 units=m
New object=Line.line281 bus1=274.1.2.3 bus2=282.1.2.3 phases=3 linecode=4c_35 Seasons=1 Ratings=[400] normamps=400 emergamps=600 length=0.60542 units=m
New object=Line.line289 bus1=282.1.2.3 bus2=290.1.2.3 phases=3 linecode=4c_35 Seasons=1 Ratings=[400] normamps=400 emergamps=600 length=0.81044 units=m
New object=Line.line174 bus1=166.1.2.3 bus2=175.1.2.3 phases=3 linecode=2c_16 Seasons=1 Ratings=[400] normamps=400 emergamps=600 length=4.2045 units=m
New object=Line.line183 bus1=175.1.2.3 bus2=184.1.2.3 phases=3 linecode=2c_16 Seasons=1 Ratings=[400] normamps=400 emergamps=600 length=0.45409 units=m
New object=Line.line192 bus1=184.1.2.3 bus2=193.1.2.3 phases=3 linecode=2c_16 Seasons=1 Ratings=[400] normamps=400 emergamps=600 length=0.43923 units=m
New object=Line.line202 bus1=193.1.2.3 bus2=203.1.2.3 phases=3 linecode=2c_16 Seasons=1 Ratings=[400] normamps=400 emergamps=600 length=0.35134 units=m
New object=Line.line212 bus1=203.1.2.3 bus2=213.1.2.3 phases=3 linecode=2c_16 Seasons=1 Ratings=[400] normamps=400 emergamps=600 length=0.27987 units=m
New object=Line.line221 bus1=213.1.2.3 bus2=222.1.2.3 phases=3 linecode=2c_16 Seasons=1 Ratings=[400] normamps=400 emergamps=600 length=0.59169 units=m
New object=Line.line229 bus1=222.1.2.3 bus2=230.1.2.3 phases=3 linecode=2c_16 Seasons=1 Ratings=[400] normamps=400 emergamps=600 length=0.46597 units=m
New object=Line.line237 bus1=230.1.2.3 bus2=238.1.2.3 phases=3 linecode=2c_16 Seasons=1 Ratings=[400] normamps=400 emergamps=600 length=0.32322 units=m
New object=Line.line244 bus1=238.1.2.3 bus2=245.1.2.3 phases=3 linecode=2c_16 Seasons=1 Ratings=[400] normamps=400 emergamps=600 length=0.32245 units=m
New object=Line.line252 bus1=245.1.2.3 bus2=253.1.2.3 phases=3 linecode=2c_16 Seasons=1 Ratings=[400] normamps=400 emergamps=600 length=0.47173 units=m
New object=Line.line259 bus1=253.1.2.3 bus2=260.1.2.3 phases=3 linecode=2c_16 Seasons=1 Ratings=[400] normamps=400 emergamps=600 length=1.7742 units=m
New object=Line.line266 bus1=260.1.2.3 bus2=267.1.2.3 phases=3 linecode=2c_16 Seasons=1 Ratings=[400] normamps=400 emergamps=600 length=0.4141 units=m
...
! Redirect m1\Loads.dss
New object=Load.load1 phases=1 bus1=34.1 kV=0.23 kW=1 pf=0.95 yearly=Shape_1
New object=Load.load3 phases=1 bus1=70.1 kV=0.23 kW=1 pf=0.95 yearly=Shape_3
New object=Load.load6 phases=1 bus1=83.2 kV=0.23 kW=1 pf=0.95 yearly=Shape_6
New object=Load.load2 phases=1 bus1=47.2 kV=0.23 kW=1 pf=0.95 yearly=Shape_2
New object=Load.load7 phases=1 bus1=178.2 kV=0.23 kW=1 pf=0.95 yearly=Shape_7
New object=Load.load9 phases=1 bus1=225.1 kV=0.23 kW=1 pf=0.95 yearly=Shape_9
New object=Load.load10 phases=1 bus1=248.2 kV=0.23 kW=1 pf=0.95 yearly=Shape_10
New object=Load.load11 phases=1 bus1=249.2 kV=0.23 kW=1 pf=0.95 yearly=Shape_11
New object=Load.load8 phases=1 bus1=208.3 kV=0.23 kW=1 pf=0.95 yearly=Shape_8
New object=Load.load12 phases=1 bus1=264.3 kV=0.23 kW=1 pf=0.95 yearly=Shape_12
New object=Load.load14 phases=1 bus1=289.1 kV=0.23 kW=1 pf=0.95 yearly=Shape_14
New object=Load.load16 phases=1 bus1=320.3 kV=0.23 kW=1 pf=0.95 yearly=Shape_16
New object=Load.load17 phases=1 bus1=327.3 kV=0.23 kW=1 pf=0.95 yearly=Shape_17
New object=Load.load13 phases=1 bus1=276.2 kV=0.23 kW=1 pf=0.95 yearly=Shape_13
New object=Load.load15 phases=1 bus1=314.2 kV=0.23 kW=1 pf=0.95 yearly=Shape_15
New object=Load.load21 phases=1 bus1=387.1 kV=0.23 kW=1 pf=0.95 yearly=Shape_21
New object=Load.load19 phases=1 bus1=342.3 kV=0.23 kW=1 pf=0.95 yearly=Shape_19
New object=Load.load20 phases=1 bus1=349.1 kV=0.23 kW=1 pf=0.95 yearly=Shape_20
New object=Load.load22 phases=1 bus1=388.1 kV=0.23 kW=1 pf=0.95 yearly=Shape_22
New object=Load.load18 phases=1 bus1=337.3 kV=0.23 kW=1 pf=0.95 yearly=Shape_18
New object=Load.load23 phases=1 bus1=406.2 kV=0.23 kW=1 pf=0.95 yearly=Shape_23
New object=Load.load35 phases=1 bus1=639.2 kV=0.23 kW=1 pf=0.95 yearly=Shape_35
New object=Load.load33 phases=1 bus1=619.3 kV=0.23 kW=1 pf=0.95 yearly=Shape_33
New object=Load.load37 phases=1 bus1=682.2 kV=0.23 kW=1 pf=0.95 yearly=Shape_37
New object=Load.load36 phases=1 bus1=676.2 kV=0.23 kW=1 pf=0.95 yearly=Shape_36
New object=Load.load31 phases=1 bus1=611.1 kV=0.23 kW=1 pf=0.95 yearly=Shape_31
New object=Load.load29 phases=1 bus1=562.1 kV=0.23 kW=1 pf=0.95 yearly=Shape_29
New object=Load.load30 phases=1 bus1=563.1 kV=0.23 kW=1 pf=0.95 yearly=Shape_30
New object=Load.load25 phases=1 bus1=502.1 kV=0.23 kW=1 pf=0.95 yearly=Shape_25
New object=Load.load34 phases=1 bus1=629.1 kV=0.23 kW=1 pf=0.95 yearly=Shape_34
New object=Load.load28 phases=1 bus1=556.3 kV=0.23 kW=1 pf=0.95 yearly=Shape_28
New object=Load.load27 phases=1 bus1=539.3 kV=0.23 kW=1 pf=0.95 yearly=Shape_27
New object=Load.load26 phases=1 bus1=522.2 kV=0.23 kW=1 pf=0.95 yearly=Shape_26
New object=Load.load44 phases=1 bus1=785.2 kV=0.23 kW=1 pf=0.95 yearly=Shape_44
New object=Load.load32 phases=1 bus1=614.3 kV=0.23 kW=1 pf=0.95 yearly=Shape_32
New object=Load.load38 phases=1 bus1=688.2 kV=0.23 kW=1 pf=0.95 yearly=Shape_38
New object=Load.load48 phases=1 bus1=860.1 kV=0.23 kW=1 pf=0.95 yearly=Shape_48
New object=Load.load49 phases=1 bus1=861.1 kV=0.23 kW=1 pf=0.95 yearly=Shape_49
New object=Load.load46 phases=1 bus1=817.1 kV=0.23 kW=1 pf=0.95 yearly=Shape_46
New object=Load.load42 phases=1 bus1=778.3 kV=0.23 kW=1 pf=0.95 yearly=Shape_42
New object=Load.load39 phases=1 bus1=701.3 kV=0.23 kW=1 pf=0.95 yearly=Shape_39
New object=Load.load40 phases=1 bus1=702.2 kV=0.23 kW=1 pf=0.95 yearly=Shape_40
New object=Load.load55 phases=1 bus1=906.1 kV=0.23 kW=1 pf=0.95 yearly=Shape_55
New object=Load.load52 phases=1 bus1=898.1 kV=0.23 kW=1 pf=0.95 yearly=Shape_52
New object=Load.load53 phases=1 bus1=899.2 kV=0.23 kW=1 pf=0.95 yearly=Shape_53
New object=Load.load50 phases=1 bus1=886.2 kV=0.23 kW=1 pf=0.95 yearly=Shape_50
New object=Load.load43 phases=1 bus1=780.3 kV=0.23 kW=1 pf=0.95 yearly=Shape_43
New object=Load.load47 phases=1 bus1=835.3 kV=0.23 kW=1 pf=0.95 yearly=Shape_47
New object=Load.load41 phases=1 bus1=755.2 kV=0.23 kW=1 pf=0.95 yearly=Shape_41
New object=Load.load45 phases=1 bus1=813.2 kV=0.23 kW=1 pf=0.95 yearly=Shape_45
New object=Load.load54 phases=1 bus1=900.1 kV=0.23 kW=1 pf=0.95 yearly=Shape_54
New object=Load.load51 phases=1 bus1=896.1 kV=0.23 kW=1 pf=0.95 yearly=Shape_51
New object=Load.load24 phases=1 bus1=458.3 kV=0.23 kW=1 pf=0.95 yearly=Shape_24
New object=Load.load4 phases=1 bus1=73.1 kV=0.23 kW=1 pf=0.95 yearly=Shape_4
New object=Load.load5 phases=1 bus1=74.1 kV=0.23 kW=1 pf=0.95 yearly=Shape_5
! Redirect Transformer.DSS
New object=Transformer.tr1 buses=[sourcebus.1.2.3,1.1.2.3] conns=[delta,wye] kVs=[11,0.416] kVAs=[800,800] XHL=4 sub=y
! Redirect Monitor.DSS
New object=Monitor.line558_vi_vs_time element=line.line558 terminal=2 mode=0
New object=Monitor.line825_vi_vs_time element=line.line825 terminal=2 mode=0
! Redirect EnergyMeter.DSS
New object=EnergyMeter.m1 element=LINE.LINE1 terminal=1
MakeBusList
! Redirect BusVoltageBases.dss  ! set voltage bases
Set Voltagebases=[11,0.416]
! Buscoords buscoords.dss
SetBusXY bus=1 X=390872.663 Y=392887.379
SetBusXY bus=2 X=390871.596 Y=392887.638
SetBusXY bus=3 X=390871.481 Y=392887.643
SetBusXY bus=4 X=390871.379 Y=392887.608
SetBusXY bus=5 X=390871.305 Y=392887.55
SetBusXY bus=6 X=390871.234 Y=392887.42
SetBusXY bus=7 X=390868.779 Y=392877.637
SetBusXY bus=8 X=390868.753 Y=392877.186
SetBusXY bus=9 X=390868.753 Y=392876.81
SetBusXY bus=10 X=390868.804 Y=392876.484
SetBusXY bus=11 X=390868.904 Y=392876.259
SetBusXY bus=12 X=390869.079 Y=392876.108
SetBusXY bus=13 X=390869.18 Y=392876.008
SetBusXY bus=14 X=390869.5 Y=392875.857
SetBusXY bus=15 X=390872.292 Y=392875.208
SetBusXY bus=17 X=390875.678 Y=392874.422
SetBusXY bus=19 X=390875.907 Y=392874.353
SetBusXY bus=21 X=390876.142 Y=392874.223
SetBusXY bus=23 X=390876.44 Y=392873.903
SetBusXY bus=25 X=390877.003 Y=392873.341
SetBusXY bus=28 X=390884.19 Y=392866.433
SetBusXY bus=32 X=390886.111 Y=392864.602
SetBusXY bus=37 X=390891.919 Y=392859.065
SetBusXY bus=43 X=390891.775 Y=392858.903
SetBusXY bus=49 X=390891.742 Y=392858.804
SetBusXY bus=55 X=390891.759 Y=392858.689
SetBusXY bus=61 X=390891.775 Y=392858.59
SetBusXY bus=68 X=390891.825 Y=392858.508
SetBusXY bus=76 X=390891.972 Y=392858.324
SetBusXY bus=81 X=390892.512 Y=392857.808
SetBusXY bus=86 X=390893.558 Y=392856.82
SetBusXY bus=90 X=390893.775 Y=392856.555
SetBusXY bus=93 X=390893.803 Y=392856.496
SetBusXY bus=96 X=390893.8 Y=392856.41
SetBusXY bus=99 X=390893.781 Y=392856.378
SetBusXY bus=102 X=390890.706 Y=392852.332
SetBusXY bus=106 X=390890.64 Y=392852.121
SetBusXY bus=109 X=390890.511 Y=392851.689
SetBusXY bus=112 X=390883.277 Y=392842.144
SetBusXY bus=115 X=390876.523 Y=392833.895
SetBusXY bus=119 X=390875.778 Y=392833.236
SetBusXY bus=124 X=390875.199 Y=392832.8
SetBusXY bus=129 X=390874.662 Y=392832.48
SetBusXY bus=135 X=390872.865 Y=392831.803
SetBusXY bus=141 X=390871.466 Y=392831.607
SetBusXY bus=147 X=390871.226 Y=392831.623
SetBusXY bus=154 X=390871.173 Y=392831.687
SetBusXY bus=161 X=390871.128 Y=392831.801
SetBusXY bus=169 X=390871.1 Y=392832.049
SetBusXY bus=42 X=390895.963 Y=392855.237
SetBusXY bus=48 X=390899.026 Y=392852.352
SetBusXY bus=54 X=390899.491 Y=392852.791
SetBusXY bus=60 X=390899.548 Y=392852.823
SetBusXY bus=67 X=390899.618 Y=392852.847
SetBusXY bus=75 X=390899.793 Y=392852.887
SetBusXY bus=80 X=390899.889 Y=392852.926
SetBusXY bus=85 X=390899.982 Y=392852.987
SetBusXY bus=89 X=390900.06 Y=392853.057
SetBusXY bus=53 X=390899.475 Y=392851.944
SetBusXY bus=59 X=390901.469 Y=392850.053
SetBusXY bus=66 X=390907.23 Y=392855.97
SetBusXY bus=74 X=390907 Y=392860
SetBusXY bus=73 X=390907 Y=392860
SetBusXY bus=65 X=390901.87 Y=392849.664
SetBusXY bus=72 X=390906.932 Y=392845.428
SetBusXY bus=79 X=390908.613 Y=392843.857
SetBusXY bus=84 X=390909.025 Y=392843.57
SetBusXY bus=88 X=390909.878 Y=392843.014
SetBusXY bus=92 X=390910.741 Y=392842.593
SetBusXY bus=95 X=390911.23 Y=392842.324
SetBusXY bus=98 X=390911.556 Y=392842.152
SetBusXY bus=101 X=390911.997 Y=392841.898
SetBusXY bus=105 X=390912.282 Y=392841.72
SetBusXY bus=108 X=390912.43 Y=392841.6
SetBusXY bus=111 X=390917.463 Y=392836.015
SetBusXY bus=114 X=390918.004 Y=392835.491
SetBusXY bus=118 X=390915.488 Y=392832.839
SetBusXY bus=123 X=390910.895 Y=392828.11
SetBusXY bus=128 X=390908.834 Y=392825.979
SetBusXY bus=134 X=390908.271 Y=392825.3
SetBusXY bus=140 X=390907.615 Y=392824.551
SetBusXY bus=146 X=390907.053 Y=392823.802
SetBusXY bus=153 X=390906.491 Y=392822.865
SetBusXY bus=160 X=390906.35 Y=392822.584
SetBusXY bus=168 X=390905.502 Y=392821.012
SetBusXY bus=177 X=390905.189 Y=392820.053
SetBusXY bus=186 X=390905.022 Y=392819.323
SetBusXY bus=195 X=390904.938 Y=392818.655
SetBusXY bus=205 X=390905.001 Y=392817.821
SetBusXY bus=215 X=390905.251 Y=392816.298
SetBusXY bus=224 X=390905.69 Y=392815.026
SetBusXY bus=232 X=390906.065 Y=392814.191
SetBusXY bus=240 X=390906.399 Y=392813.691
SetBusXY bus=247 X=390907.213 Y=392812.685
SetBusXY bus=256 X=390907.752 Y=392812.019
SetBusXY bus=263 X=390909.871 Y=392809.604
SetBusXY bus=272 X=390910.583 Y=392808.793
SetBusXY bus=280 X=390913.173 Y=392805.861
SetBusXY bus=288 X=390912.467 Y=392805.282
SetBusXY bus=297 X=390909.292 Y=392803.146
SetBusXY bus=304 X=390908.726 Y=392802.519
SetBusXY bus=311 X=390908.548 Y=392802.302
SetBusXY bus=319 X=390908.47 Y=392802.178
SetBusXY bus=326 X=390908.408 Y=392802.069
SetBusXY bus=333 X=390908.354 Y=392801.937
SetBusXY bus=340 X=390908.323 Y=392801.829
SetBusXY bus=347 X=390908.308 Y=392801.736
SetBusXY bus=353 X=390908.308 Y=392801.651
SetBusXY bus=358 X=390908.315 Y=392801.581
SetBusXY bus=363 X=390908.339 Y=392801.503
SetBusXY bus=368 X=390908.385 Y=392801.426
SetBusXY bus=373 X=390908.689 Y=392801.043
SetBusXY bus=379 X=390907.282 Y=392801.155
SetBusXY bus=386 X=390906.36 Y=392802.282
SetBusXY bus=393 X=390901.454 Y=392808.389
SetBusXY bus=399 X=390901.096 Y=392808.831
SetBusXY bus=405 X=390900.933 Y=392809.018
SetBusXY bus=412 X=390900.791 Y=392809.106
SetBusXY bus=418 X=390900.539 Y=392809.227
SetBusXY bus=424 X=390897.659 Y=392810.609
SetBusXY bus=431 X=390896.587 Y=392810.976
SetBusXY bus=438 X=390896.22 Y=392811.089
SetBusXY bus=445 X=390895.542 Y=392811.117
SetBusXY bus=452 X=390894.949 Y=392811.145
SetBusXY bus=459 X=390894.3 Y=392810.976
SetBusXY bus=466 X=390893.764 Y=392810.637
SetBusXY bus=474 X=390891.2225 Y=392808.691
SetBusXY bus=481 X=390891.138 Y=392808.521
SetBusXY bus=489 X=390891.11 Y=392808.352
SetBusXY bus=498 X=390891.166 Y=392808.126
SetBusXY bus=507 X=390891.336 Y=392807.872
SetBusXY bus=385 X=390898.776 Y=392802.817
SetBusXY bus=392 X=390895.655 Y=392803.358
SetBusXY bus=398 X=390895.344 Y=392803.443
SetBusXY bus=404 X=390895.119 Y=392803.443
SetBusXY bus=411 X=390894.893 Y=392803.386
SetBusXY bus=417 X=390894.074 Y=392802.85
SetBusXY bus=423 X=390893.905 Y=392802.681
SetBusXY bus=430 X=390893.792 Y=392802.483
SetBusXY bus=437 X=390893.764 Y=392802.258
SetBusXY bus=444 X=390893.82 Y=392802.004
SetBusXY bus=451 X=390894.441 Y=392801.355
SetBusXY bus=458 X=390894 Y=392797
SetBusXY bus=378 X=390910.98 Y=392798.157
SetBusXY bus=384 X=390913.208 Y=392795.42
SetBusXY bus=391 X=390913.3067 Y=392795.2978
SetBusXY bus=397 X=390915.116 Y=392793.058
SetBusXY bus=403 X=390916.015 Y=392791.999
SetBusXY bus=410 X=390915.753 Y=392791.725
SetBusXY bus=416 X=390915.69 Y=392791.654
SetBusXY bus=422 X=390915.654 Y=392791.598
SetBusXY bus=429 X=390915.626 Y=392791.52
SetBusXY bus=436 X=390915.619 Y=392791.449
SetBusXY bus=443 X=390915.619 Y=392791.371
SetBusXY bus=450 X=390915.633 Y=392791.293
SetBusXY bus=457 X=390915.654 Y=392791.243
SetBusXY bus=465 X=390915.683 Y=392791.215
SetBusXY bus=473 X=390915.718 Y=392791.18
SetBusXY bus=480 X=390915.775 Y=392791.151
SetBusXY bus=488 X=390915.881 Y=392791.116
SetBusXY bus=497 X=390916.016 Y=392791.08
SetBusXY bus=506 X=390916.108 Y=392791.052
SetBusXY bus=515 X=390916.186 Y=392791.017
SetBusXY bus=524 X=390916.242 Y=392790.981
SetBusXY bus=532 X=390916.278 Y=392790.932
SetBusXY bus=541 X=390916.292 Y=392790.868
SetBusXY bus=549 X=390916.278 Y=392790.783
SetBusXY bus=558 X=390916.242 Y=392790.733
SetBusXY bus=566 X=390916.157 Y=392790.648
SetBusXY bus=409 X=390918.607 Y=392788.706
SetBusXY bus=415 X=390922.398 Y=392784.096
SetBusXY bus=421 X=390923.197 Y=392783.136
SetBusXY bus=428 X=390923.398 Y=392782.888
SetBusXY bus=435 X=390923.491 Y=392782.749
SetBusXY bus=442 X=390923.553 Y=392782.625
SetBusXY bus=449 X=390923.584 Y=392782.517
SetBusXY bus=456 X=390923.6 Y=392782.346
SetBusXY bus=464 X=390923.584 Y=392782.192
SetBusXY bus=472 X=390923.538 Y=392782.052
SetBusXY bus=479 X=390923.476 Y=392781.898
SetBusXY bus=487 X=390923.352 Y=392781.774
SetBusXY bus=496 X=390923.073 Y=392781.511
SetBusXY bus=505 X=390916.237 Y=392776.136
SetBusXY bus=514 X=390915.185 Y=392775.311
SetBusXY bus=523 X=390914.619 Y=392774.864
SetBusXY bus=531 X=390914.548 Y=392774.783
SetBusXY bus=540 X=390914.494 Y=392774.721
SetBusXY bus=548 X=390914.467 Y=392774.649
SetBusXY bus=557 X=390914.449 Y=392774.569
SetBusXY bus=565 X=390914.458 Y=392774.497
SetBusXY bus=572 X=390914.476 Y=392774.425
SetBusXY bus=578 X=390914.701 Y=392774.115
SetBusXY bus=586 X=390915.202 Y=392773.458
SetBusXY bus=594 X=390917.646 Y=392770.357
SetBusXY bus=603 X=390920.545 Y=392766.731
SetBusXY bus=615 X=390923.419 Y=392763.338
SetBusXY bus=625 X=390924.232 Y=392762.387
SetBusXY bus=632 X=390924.414 Y=392762.164
SetBusXY bus=638 X=390924.515 Y=392762.063
SetBusXY bus=644 X=390924.636 Y=392761.963
...
